
     RDKit          3D

 16 18  0  0  0  0  0  0  0  0999 V2000
   11.2740   23.3260   46.6840 N   0  0  0  0  0  0  0  0  0  0  0  0
   10.6650   22.8510   47.7940 C   0  0  0  0  0  0  0  0  0  0  0  0
    9.6700   23.6490   48.4750 C   0  0  0  0  0  0  0  0  0  0  0  0
    8.9820   23.1820   49.5160 C   0  0  0  0  0  0  0  0  0  0  0  0
    9.1900   21.8460   50.0200 C   0  0  0  0  0  0  0  0  0  0  0  0
    8.4750   21.2720   51.0580 C   0  0  0  0  0  0  0  0  0  0  0  0
    8.6900   19.9650   51.4640 C   0  0  0  0  0  0  0  0  0  0  0  0
    7.9680   19.2990   52.5280 C   0  0  0  0  0  0  0  0  0  0  0  0
    8.2220   18.0300   52.8520 C   0  0  0  0  0  0  0  0  0  0  0  0
    9.2310   17.2530   52.1630 C   0  0  0  0  0  0  0  0  0  0  0  0
    9.4530   15.9620   52.5020 N   0  0  0  0  0  0  0  0  0  0  0  0
    9.9390   17.8640   51.1430 C   0  0  0  0  0  0  0  0  0  0  0  0
    9.6910   19.1730   50.7930 C   0  0  0  0  0  0  0  0  0  0  0  0
   10.3850   19.7760   49.7680 N   0  0  0  0  0  0  0  0  0  0  0  0
   10.1960   21.0700   49.3360 C   0  0  0  0  0  0  0  0  0  0  0  0
   10.9020   21.5730   48.2640 C   0  0  0  0  0  0  0  0  0  0  0  0
  4  5  2  0
  4  3  1  0
  3  2  2  0
  2  1  1  0
  2 16  1  0
 16 15  2  0
 15 14  1  0
 15  5  1  0
  5  6  1  0
  6  7  2  0
  7  8  1  0
  7 13  1  0
 13 12  1  0
 13 14  2  0
 12 10  2  0
 10 11  1  0
 10  9  1  0
  9  8  2  0
M  END
$$$$
