
     RDKit          3D

 28 30  0  0  0  0  0  0  0  0999 V2000
   49.0030   18.2220    5.0270 O   0  0  0  0  0  0  0  0  0  0  0  0
   47.9420   17.5920    4.9940 C   0  0  0  0  0  0  0  0  0  0  0  0
   47.1630   17.5430    5.9630 O   0  0  0  0  0  0  0  0  0  0  0  0
   47.5820   16.8460    3.7100 C   0  0  0  0  0  0  0  0  0  0  0  0
   46.3660   16.1140    3.9000 O   0  0  0  0  0  0  0  0  0  0  0  0
   45.9700   15.2890    2.7910 C   0  0  0  0  0  0  0  0  0  0  0  0
   45.0960   15.6460    1.7300 C   0  0  0  0  0  0  0  0  0  0  0  0
   44.4140   16.8590    1.4850 C   0  0  0  0  0  0  0  0  0  0  0  0
   44.4470   17.7800    2.2990 O   0  0  0  0  0  0  0  0  0  0  0  0
   43.7890   16.9570    0.4240 O   0  0  0  0  0  0  0  0  0  0  0  0
   44.9240   14.3230    0.6640 S   0  0  0  0  0  0  0  0  0  0  0  0
   45.9450   13.2820    1.5090 C   0  0  0  0  0  0  0  0  0  0  0  0
   46.2010   11.8870    1.0260 C   0  0  0  0  0  0  0  0  0  0  0  0
   45.1080   11.1050    0.5240 C   0  0  0  0  0  0  0  0  0  0  0  0
   45.3100    9.7660    0.0560 C   0  0  0  0  0  0  0  0  0  0  0  0
   46.6290    9.2030    0.0970 C   0  0  0  0  0  0  0  0  0  0  0  0
   47.7370    9.9830    0.6010 C   0  0  0  0  0  0  0  0  0  0  0  0
   49.0320    9.5000    0.6690 N   0  0  0  0  0  0  0  0  0  0  0  0
   49.4040    8.0820    0.8060 C   0  0  0  0  0  0  0  0  0  0  0  0
   49.4490    7.6120    2.2450 C   0  0  0  0  0  0  0  0  0  0  0  0
   48.2330    7.1950    2.8950 C   0  0  0  0  0  0  0  0  0  0  0  0
   48.2680    6.7450    4.2530 C   0  0  0  0  0  0  0  0  0  0  0  0
   49.5260    6.7190    4.9440 C   0  0  0  0  0  0  0  0  0  0  0  0
   50.7460    7.1350    4.3000 C   0  0  0  0  0  0  0  0  0  0  0  0
   50.7060    7.5850    2.9370 C   0  0  0  0  0  0  0  0  0  0  0  0
   47.5180   11.3150    1.0600 C   0  0  0  0  0  0  0  0  0  0  0  0
   46.4440   13.9560    2.6530 C   0  0  0  0  0  0  0  0  0  0  0  0
   47.6320   13.1870    3.9130 Br  0  0  0  0  0  0  0  0  0  0  0  0
 11  7  1  0
 11 12  1  0
  7  6  2  0
  7  8  1  0
  6 27  1  0
  6  5  1  0
 27 12  2  0
 27 28  1  0
 12 13  1  0
  8  9  2  0
  8 10  1  0
 13 26  2  0
 13 14  1  0
 26 17  1  0
 17 16  2  0
 17 18  1  0
 16 15  1  0
 15 14  2  0
  5  4  1  0
  4  2  1  0
  2  3  1  0
  2  1  2  0
 18 19  1  0
 19 20  1  0
 20 21  2  0
 20 25  1  0
 21 22  1  0
 22 23  2  0
 23 24  1  0
 24 25  2  0
M  END
$$$$
