
     RDKit          3D

 29 32  0  0  0  0  0  0  0  0999 V2000
   19.0120    3.5780   10.7470 O   0  0  0  0  0  0  0  0  0  0  0  0
   20.0820    4.0090   10.2690 C   0  0  0  0  0  0  0  0  0  0  0  0
   20.3180    4.1100    9.0460 O   0  0  0  0  0  0  0  0  0  0  0  0
   21.2080    4.3710   11.2250 C   0  0  0  0  0  0  0  0  0  0  0  0
   22.5210    4.1870   10.8070 C   0  0  0  0  0  0  0  0  0  0  0  0
   23.5720    4.4900   11.6530 C   0  0  0  0  0  0  0  0  0  0  0  0
   23.3420    4.9770   12.9340 C   0  0  0  0  0  0  0  0  0  0  0  0
   22.0290    5.1580   13.3540 C   0  0  0  0  0  0  0  0  0  0  0  0
   20.9590    4.8580   12.5070 C   0  0  0  0  0  0  0  0  0  0  0  0
   22.1140    5.6400   14.6600 C   0  0  0  0  0  0  0  0  0  0  0  0
   21.1580    5.9120   15.3850 O   0  0  0  0  0  0  0  0  0  0  0  0
   23.3960    5.7440   15.0260 N   0  0  0  0  0  0  0  0  0  0  0  0
   23.7960    6.2670   16.3550 C   0  0  0  0  0  0  0  0  0  0  0  0
   24.7120    7.5120   16.2130 C   0  0  0  0  0  0  0  0  0  0  0  0
   23.9950    8.5220   15.3010 C   0  0  0  0  0  0  0  0  0  0  0  0
   24.4450    8.6080   13.9970 C   0  0  0  0  0  0  0  0  0  0  0  0
   23.8630    9.4750   13.0910 C   0  0  0  0  0  0  0  0  0  0  0  0
   22.7950   10.2750   13.4610 C   0  0  0  0  0  0  0  0  0  0  0  0
   22.3160   10.1940   14.7590 C   0  0  0  0  0  0  0  0  0  0  0  0
   21.2410   10.9980   15.1300 C   0  0  0  0  0  0  0  0  0  0  0  0
   20.7510   10.9320   16.4290 C   0  0  0  0  0  0  0  0  0  0  0  0
   21.3400   10.0720   17.3400 C   0  0  0  0  0  0  0  0  0  0  0  0
   22.4060    9.2820   16.9720 C   0  0  0  0  0  0  0  0  0  0  0  0
   22.9090    9.3210   15.6750 C   0  0  0  0  0  0  0  0  0  0  0  0
   24.3490    5.1940   17.3360 C   0  0  0  0  0  0  0  0  0  0  0  0
   24.9630    4.2210   16.8750 O   0  0  0  0  0  0  0  0  0  0  0  0
   24.0970    5.3900   18.5510 O   0  0  0  0  0  0  0  0  0  0  0  0
   24.1670    5.3610   13.9950 C   0  0  0  0  0  0  0  0  0  0  0  0
   25.4050    5.3390   13.9930 O   0  0  0  0  0  0  0  0  0  0  0  0
 24 23  2  0
 24 19  1  0
 24 15  1  0
 23 22  1  0
 22 21  2  0
 21 20  1  0
 20 19  2  0
 19 18  1  0
 18 17  2  0
 17 16  1  0
 16 15  2  0
 15 14  1  0
 14 13  1  0
 13 25  1  0
 13 12  1  0
 25 27  1  0
 25 26  2  0
 12 10  1  0
 12 28  1  0
 10 11  2  0
 10  8  1  0
  8  9  1  0
  8  7  2  0
  9  4  2  0
  4  2  1  0
  4  5  1  0
  2  1  2  0
  2  3  1  0
  5  6  2  0
  6  7  1  0
  7 28  1  0
 28 29  2  0
M  END
$$$$
