
     RDKit          3D

 27 30  0  0  0  0  0  0  0  0999 V2000
   26.8040   27.5160   26.3780 C   0  0  0  0  0  0  0  0  0  0  0  0
   27.8370   28.5720   25.9750 C   0  0  0  0  0  0  0  0  0  0  0  0
   27.8370   29.8970   26.4430 C   0  0  0  0  0  0  0  0  0  0  0  0
   26.8650   30.5010   27.2580 C   0  0  0  0  0  0  0  0  0  0  0  0
   26.9460   31.8720   27.5050 C   0  0  0  0  0  0  0  0  0  0  0  0
   25.9450   32.4780   28.2440 C   0  0  0  0  0  0  0  0  0  0  0  0
   24.9300   31.7550   28.6910 N   0  0  0  0  0  0  0  0  0  0  0  0
   24.8420   30.4290   28.4720 C   0  0  0  0  0  0  0  0  0  0  0  0
   23.7530   29.8120   28.9680 N   0  0  0  0  0  0  0  0  0  0  0  0
   23.3580   28.5430   28.7540 C   0  0  0  0  0  0  0  0  0  0  0  0
   23.8190   27.7550   27.7100 C   0  0  0  0  0  0  0  0  0  0  0  0
   23.3890   26.4280   27.5660 C   0  0  0  0  0  0  0  0  0  0  0  0
   22.4700   25.8690   28.4570 C   0  0  0  0  0  0  0  0  0  0  0  0
   21.9990   24.5490   28.2820 N   0  0  0  0  0  0  0  0  0  0  0  0
   21.0300   24.0090   29.2560 C   0  0  0  0  0  0  0  0  0  0  0  0
   20.8700   22.4770   29.2510 C   0  0  0  0  0  0  0  0  0  0  0  0
   21.7240   21.8210   28.2490 N   0  0  0  0  0  0  0  0  0  0  0  0
   21.5470   22.5040   26.9750 C   0  0  0  0  0  0  0  0  0  0  0  0
   22.3130   23.8260   27.0370 C   0  0  0  0  0  0  0  0  0  0  0  0
   22.0090   26.6430   29.5180 C   0  0  0  0  0  0  0  0  0  0  0  0
   22.4710   27.9570   29.6610 C   0  0  0  0  0  0  0  0  0  0  0  0
   25.7860   29.8320   27.7130 N   0  0  0  0  0  0  0  0  0  0  0  0
   29.2070   30.6630   25.7370 S   0  0  0  0  0  0  0  0  0  0  0  0
   29.6770   29.2860   24.8710 C   0  0  0  0  0  0  0  0  0  0  0  0
   30.6760   29.1880   24.1620 O   0  0  0  0  0  0  0  0  0  0  0  0
   28.8420   28.2790   25.1390 N   0  0  0  0  0  0  0  0  0  0  0  0
   29.0250   26.9260   24.5410 C   0  0  0  0  0  0  0  0  0  0  0  0
 15 16  1  0
 15 14  1  0
 16 17  1  0
 17 18  1  0
 18 19  1  0
 19 14  1  0
 14 13  1  0
 13 12  2  0
 13 20  1  0
 12 11  1  0
 11 10  2  0
 20 21  2  0
 21 10  1  0
 10  9  1  0
  9  8  1  0
  8 22  2  0
  8  7  1  0
 22  4  1  0
  7  6  2  0
  6  5  1  0
  5  4  2  0
  4  3  1  0
  3 23  1  0
  3  2  2  0
 23 24  1  0
 24 25  2  0
 24 26  1  0
 26 27  1  0
 26  2  1  0
  2  1  1  0
M  CHG  1  17   1
M  END
$$$$
