
     RDKit          3D

 48 51  0  0  0  0  0  0  0  0999 V2000
    7.5525   15.3716   10.2998 H   0  0  0  0  0  0  0  0  0  0  0  0
    8.3300   15.8920   10.7060 N   0  0  0  0  0  0  0  0  0  0  0  0
    8.3930   17.1820   10.5640 C   0  0  0  0  0  0  0  0  0  0  0  0
    7.4410   17.8480    9.8840 N   0  0  0  0  0  0  0  0  0  0  0  0
    9.3830   17.7860   11.0730 N   0  0  0  0  0  0  0  0  0  0  0  0
    9.6910   19.2600   11.0360 C   0  0  0  0  0  0  0  0  0  0  0  0
   10.9970   19.6800   11.3960 C   0  0  0  0  0  0  0  0  0  0  0  0
   12.3040   18.9690   11.5750 C   0  0  0  0  0  0  0  0  0  0  0  0
   12.2190   17.8200   12.6330 C   0  0  0  0  0  0  0  0  0  0  0  0
   11.7390   16.6600   12.2050 N   0  0  0  0  0  0  0  0  0  0  0  0
   13.6600   17.6060   13.1490 C   0  0  0  0  0  0  0  0  0  0  0  0
   14.3910   16.7870   12.4920 O   0  0  0  0  0  0  0  0  0  0  0  0
   14.1550   18.2360   14.3540 N   0  0  0  0  0  0  0  0  0  0  0  0
   15.6290   18.3080   14.6410 C   0  0  0  0  0  0  0  0  0  0  0  0
   15.6680   16.7870   15.0130 C   0  0  0  0  0  0  0  0  0  0  0  0
   14.8150   16.0880   15.6440 O   0  0  0  0  0  0  0  0  0  0  0  0
   16.8510   15.9920   14.5970 N   0  0  0  0  0  0  0  0  0  0  0  0
   17.9600   16.6050   13.8440 C   0  0  0  0  0  0  0  0  0  0  0  0
   19.0920   15.6380   13.8150 C   0  0  0  0  0  0  0  0  0  0  0  0
   18.4610   14.3690   14.2000 C   0  0  0  0  0  0  0  0  0  0  0  0
   17.1570   14.5490   14.8280 C   0  0  0  0  0  0  0  0  0  0  0  0
   17.1490   14.3330   16.3830 C   0  0  0  0  0  0  0  0  0  0  0  0
   17.8260   15.0210   17.1960 O   0  0  0  0  0  0  0  0  0  0  0  0
   16.2500   13.3460   16.6600 N   0  0  0  0  0  0  0  0  0  0  0  0
   15.8490   12.8330   17.9400 C   0  0  0  0  0  0  0  0  0  0  0  0
   16.1530   11.3590   18.2000 C   0  0  0  0  0  0  0  0  0  0  0  0
   15.0450   13.5100   19.0040 C   0  0  0  0  0  0  0  0  0  0  0  0
   15.1260   13.0390   20.2120 O   0  0  0  0  0  0  0  0  0  0  0  0
   14.3250   14.4920   18.5440 N   0  0  0  0  0  0  0  0  0  0  0  0
   13.4320   15.2750   19.3650 C   0  0  0  0  0  0  0  0  0  0  0  0
   13.0520   16.3840   18.5050 C   0  0  0  0  0  0  0  0  0  0  0  0
   12.0920   17.2960   19.1710 C   0  0  0  0  0  0  0  0  0  0  0  0
   10.5440   17.2540   18.9290 C   0  0  0  0  0  0  0  0  0  0  0  0
    9.5950   18.1810   19.5890 C   0  0  0  0  0  0  0  0  0  0  0  0
   10.1340   19.2290   20.5490 C   0  0  0  0  0  0  0  0  0  0  0  0
    9.1640   20.2120   21.2250 C   0  0  0  0  0  0  0  0  0  0  0  0
   11.6520   19.3360   20.8520 C   0  0  0  0  0  0  0  0  0  0  0  0
   12.6250   18.3470   20.1420 C   0  0  0  0  0  0  0  0  0  0  0  0
   12.3320   14.2920   19.7620 C   0  0  0  0  0  0  0  0  0  0  0  0
   11.9481   14.2781   21.0353 N   0  0  0  0  0  0  0  0  0  0  0  0
   11.7600   13.4910   18.9690 O   0  0  0  0  0  0  0  0  0  0  0  0
   15.6620   19.0960   15.8740 C   0  0  0  0  0  0  0  0  0  0  0  0
   14.8480   20.2470   15.4020 C   0  0  0  0  0  0  0  0  0  0  0  0
   14.4890   21.3810   16.4020 C   0  0  0  0  0  0  0  0  0  0  0  0
   13.5320   20.8730   17.5160 C   0  0  0  0  0  0  0  0  0  0  0  0
   12.2250   20.3500   16.8910 C   0  0  0  0  0  0  0  0  0  0  0  0
   12.5250   19.1880   15.9230 C   0  0  0  0  0  0  0  0  0  0  0  0
   13.5950   19.5530   14.8370 C   0  0  0  0  0  0  0  0  0  0  0  0
  9 10  1  0
  9  8  1  0
 11  9  1  0
  8  7  1  0
  7  6  2  0
  6  5  1  0
  5  3  1  0
  3  4  1  0
  3  2  2  0
 11 12  2  0
 13 11  1  0
 14 13  1  0
 13 48  1  0
 15 14  1  0
 14 42  1  0
 15 16  2  0
 17 15  1  0
 42 43  1  0
 43 48  1  0
 43 44  1  0
 48 47  1  0
 44 45  1  0
 45 46  1  0
 47 46  1  0
 21 17  1  0
 17 18  1  0
 22 21  1  0
 21 20  1  0
 22 23  2  0
 24 22  1  0
 20 19  1  0
 19 18  1  0
 25 24  1  0
 25 26  1  0
 27 25  1  0
 27 28  2  0
 29 27  1  0
 30 31  1  0
 30 39  1  0
 30 29  1  0
 31 32  1  0
 32 33  2  0
 32 38  1  0
 33 34  1  0
 38 37  2  0
 34 35  2  0
 37 35  1  0
 35 36  1  0
 39 41  2  0
 39 40  1  0
  2  1  1  0
M  CHG  1  10   1
M  END
$$$$
