
     RDKit          3D

 31 33  0  0  0  0  0  0  0  0999 V2000
   13.6750    8.3350    6.6490 C   0  0  0  0  0  0  0  0  0  0  0  0
   14.6110    9.3010    7.3270 C   0  0  0  0  0  0  0  0  0  0  0  0
   14.8150    8.7990    8.7460 C   0  0  0  0  0  0  0  0  0  0  0  0
   13.9180   10.6620    7.4310 C   0  0  0  0  0  0  0  0  0  0  0  0
   15.9780    9.3600    6.6230 C   0  0  0  0  0  0  0  0  0  0  0  0
   16.7390    8.0470    6.8430 N   0  0  0  0  0  0  0  0  0  0  0  0
   15.9780    9.7850    5.1690 C   0  0  0  0  0  0  0  0  0  0  0  0
   15.9810    8.9220    4.2910 O   0  0  0  0  0  0  0  0  0  0  0  0
   16.0410   11.1200    4.9100 N   0  0  0  0  0  0  0  0  0  0  0  0
   16.1190   11.7770    3.5160 S   0  0  0  0  0  0  0  0  0  0  0  0
   17.3970   11.5100    2.9350 O   0  0  0  0  0  0  0  0  0  0  0  0
   15.8100   13.1830    3.5890 O   0  0  0  0  0  0  0  0  0  0  0  0
   15.0660   11.1550    2.4350 O   0  0  0  0  0  0  0  0  0  0  0  0
   13.6620   11.3080    2.6870 C   0  0  0  0  0  0  0  0  0  0  0  0
   12.9450   10.3860    1.7260 C   0  0  0  0  0  0  0  0  0  0  0  0
   13.1860   10.8710    0.3920 O   0  0  0  0  0  0  0  0  0  0  0  0
   13.5160    9.7630   -0.4270 C   0  0  0  0  0  0  0  0  0  0  0  0
   14.3640   10.1590   -1.5780 N   0  0  0  0  0  0  0  0  0  0  0  0
   15.5520   10.8080   -1.5320 C   0  0  0  0  0  0  0  0  0  0  0  0
   16.0070   10.9830   -2.8040 N   0  0  0  0  0  0  0  0  0  0  0  0
   15.0840   10.4280   -3.6300 C   0  0  0  0  0  0  0  0  0  0  0  0
   14.9950   10.2820   -5.0020 C   0  0  0  0  0  0  0  0  0  0  0  0
   15.9960   10.7380   -5.8040 N   0  0  0  0  0  0  0  0  0  0  0  0
   13.8950    9.6540   -5.5200 N   0  0  0  0  0  0  0  0  0  0  0  0
   12.9040    9.1740   -4.7500 C   0  0  0  0  0  0  0  0  0  0  0  0
   12.9630    9.2950   -3.4200 N   0  0  0  0  0  0  0  0  0  0  0  0
   14.0430    9.9190   -2.8510 C   0  0  0  0  0  0  0  0  0  0  0  0
   14.2850    8.8210    0.4980 C   0  0  0  0  0  0  0  0  0  0  0  0
   14.3440    7.4730    0.0010 O   0  0  0  0  0  0  0  0  0  0  0  0
   13.5110    8.9740    1.7970 C   0  0  0  0  0  0  0  0  0  0  0  0
   12.4460    8.0410    1.8130 O   0  0  0  0  0  0  0  0  0  0  0  0
  7  5  1  0
  9  7  1  0
  7  8  2  0
 25 24  2  0
 26 25  1  0
  5  2  1  0
  5  6  1  0
 27 21  1  0
 27 26  2  0
 18 27  1  0
 21 22  2  0
 20 21  1  0
 22 24  1  0
 22 23  1  0
  2  1  1  0
  2  3  1  0
  2  4  1  0
 10  9  1  0
 18 19  1  0
 19 20  2  0
 28 29  1  0
 10 11  2  0
 10 12  2  0
 13 10  1  0
 14 13  1  0
 15 14  1  0
 15 30  1  0
 16 15  1  0
 30 31  1  0
 28 30  1  0
 17 28  1  0
 17 16  1  0
 17 18  1  0
M  CHG  1   6   1
M  END
$$$$
