
     RDKit          3D

 21 23  0  0  0  0  0  0  0  0999 V2000
  122.7930  137.0720   65.4610 O   0  0  0  0  0  0  0  0  0  0  0  0
  121.8640  136.4760   66.3950 S   0  0  0  0  0  0  0  0  0  0  0  0
  122.5480  135.7720   67.4650 O   0  0  0  0  0  0  0  0  0  0  0  0
  120.9010  137.6330   67.0540 O   0  0  0  0  0  0  0  0  0  0  0  0
  120.8460  135.2870   65.5420 C   0  0  0  0  0  0  0  0  0  0  0  0
  119.4530  135.5370   65.5670 C   0  0  0  0  0  0  0  0  0  0  0  0
  118.5460  134.6700   64.9420 C   0  0  0  0  0  0  0  0  0  0  0  0
  119.0110  133.5290   64.2760 C   0  0  0  0  0  0  0  0  0  0  0  0
  120.3990  133.2200   64.2130 C   0  0  0  0  0  0  0  0  0  0  0  0
  120.8370  132.0570   63.5310 C   0  0  0  0  0  0  0  0  0  0  0  0
  122.1960  131.7260   63.4460 C   0  0  0  0  0  0  0  0  0  0  0  0
  123.1690  132.5480   64.0390 C   0  0  0  0  0  0  0  0  0  0  0  0
  122.8060  133.7390   64.7520 C   0  0  0  0  0  0  0  0  0  0  0  0
  123.7480  134.4790   65.2890 N   0  0  0  0  0  0  0  0  0  0  0  0
  124.6910  134.0930   66.1350 C   0  0  0  0  0  0  0  0  0  0  0  0
  124.6230  132.8740   66.9080 C   0  0  0  0  0  0  0  0  0  0  0  0
  125.6750  132.5270   67.8100 C   0  0  0  0  0  0  0  0  0  0  0  0
  126.8000  133.3920   67.9490 C   0  0  0  0  0  0  0  0  0  0  0  0
  126.8720  134.5920   67.1900 C   0  0  0  0  0  0  0  0  0  0  0  0
  125.8240  134.9400   66.2910 C   0  0  0  0  0  0  0  0  0  0  0  0
  121.3810  134.1110   64.8550 C   0  0  0  0  0  0  0  0  0  0  0  0
 13 12  2  0
 13 14  1  0
 13 21  1  0
 12 11  1  0
 11 10  2  0
 10  9  1  0
  9  8  1  0
  9 21  2  0
  8  7  2  0
  7  6  1  0
  6  5  2  0
 14 15  1  0
  5  2  1  0
  2  1  2  0
  2  3  2  0
  2  4  1  0
  5 21  1  0
 15 16  2  0
 15 20  1  0
 16 17  1  0
 17 18  2  0
 18 19  1  0
 19 20  2  0
M  END
$$$$
