
     RDKit          3D

 15 15  0  0  0  0  0  0  0  0999 V2000
   77.5190    7.7140   27.7450 C   0  0  0  0  0  0  0  0  0  0  0  0
   78.6890    8.0180   28.6170 C   0  0  0  0  0  0  0  0  0  0  0  0
   79.7050    8.7710   27.8320 C   0  0  0  0  0  0  0  0  0  0  0  0
   80.4910    7.8630   26.9150 C   0  0  0  0  0  0  0  0  0  0  0  0
   81.0330    6.6590   27.6580 C   0  0  0  0  0  0  0  0  0  0  0  0
   79.9970    5.9440   28.4670 C   0  0  0  0  0  0  0  0  0  0  0  0
   79.2240    4.9870   27.6060 C   0  0  0  0  0  0  0  0  0  0  0  0
   79.5640    4.8490   26.3960 O   0  0  0  0  0  0  0  0  0  0  0  0
   78.2320    4.3340   28.0800 O   0  0  0  0  0  0  0  0  0  0  0  0
   79.2190    6.8560   29.2340 N   0  0  0  0  0  0  0  0  0  0  0  0
   78.9240    6.7150   30.6490 C   0  0  0  0  0  0  0  0  0  0  0  0
   78.2490    7.5910   31.1600 O   0  0  0  0  0  0  0  0  0  0  0  0
   79.3740    5.6000   31.5390 C   0  0  0  0  0  0  0  0  0  0  0  0
   79.6960    5.9550   32.9530 C   0  0  0  0  0  0  0  0  0  0  0  0
   80.7500    4.8300   33.8170 S   0  0  0  0  0  0  0  0  0  0  0  0
  1  2  1  0
  2  3  1  0
  2 10  1  0
  3  4  1  0
  4  5  1  0
  5  6  1  0
  6 10  1  0
  6  7  1  0
 10 11  1  0
 11 12  2  0
 11 13  1  0
 13 14  1  0
 14 15  1  0
  7  8  2  0
  7  9  1  0
M  END
$$$$
