
     RDKit          3D

 24 26  0  0  0  0  0  0  0  0999 V2000
   -7.9950   11.4610   16.3350 C   0  0  0  0  0  0  0  0  0  0  0  0
   -7.6780   12.4760   15.4180 O   0  0  0  0  0  0  0  0  0  0  0  0
   -7.0270   12.1070   14.2810 C   0  0  0  0  0  0  0  0  0  0  0  0
   -7.0370   13.1430   13.3030 C   0  0  0  0  0  0  0  0  0  0  0  0
   -6.4030   12.9370   12.1190 C   0  0  0  0  0  0  0  0  0  0  0  0
   -5.7400   11.7080   11.8550 C   0  0  0  0  0  0  0  0  0  0  0  0
   -5.0860   11.5090   10.6150 C   0  0  0  0  0  0  0  0  0  0  0  0
   -4.4060   10.3480   10.3650 C   0  0  0  0  0  0  0  0  0  0  0  0
   -4.3940    9.3150   11.3240 C   0  0  0  0  0  0  0  0  0  0  0  0
   -5.0590    9.4900   12.5140 C   0  0  0  0  0  0  0  0  0  0  0  0
   -5.0220    8.4090   13.4570 N   0  0  0  0  0  0  0  0  0  0  0  0
   -3.8370    7.9000   13.9990 C   0  0  0  0  0  0  0  0  0  0  0  0
   -4.2390    6.8540   14.8370 C   0  0  0  0  0  0  0  0  0  0  0  0
   -3.4710    6.0150   15.6350 N   0  0  0  0  0  0  0  0  0  0  0  0
   -2.0750    6.1640   15.7150 C   0  0  0  0  0  0  0  0  0  0  0  0
   -1.4230    5.3190   16.6040 N   0  0  0  0  0  0  0  0  0  0  0  0
   -1.4390    6.9880   15.0480 O   0  0  0  0  0  0  0  0  0  0  0  0
   -5.6690    6.7870   14.7270 C   0  0  0  0  0  0  0  0  0  0  0  0
   -6.5460    5.8330   15.4100 C   0  0  0  0  0  0  0  0  0  0  0  0
   -7.8650    5.7950   15.0340 N   0  0  0  0  0  0  0  0  0  0  0  0
   -6.1220    5.0730   16.2890 O   0  0  0  0  0  0  0  0  0  0  0  0
   -6.1250    7.7550   13.8680 N   0  0  0  0  0  0  0  0  0  0  0  0
   -5.7410   10.6980   12.8320 C   0  0  0  0  0  0  0  0  0  0  0  0
   -6.3960   10.9090   14.0710 C   0  0  0  0  0  0  0  0  0  0  0  0
 11 22  1  0
 11 12  1  0
 11 10  1  0
 22 18  2  0
 18 13  1  0
 18 19  1  0
 13 12  2  0
 13 14  1  0
 14 15  1  0
 15 16  1  0
 15 17  2  0
 19 20  1  0
 19 21  2  0
 10  9  2  0
 10 23  1  0
  9  8  1  0
  8  7  2  0
  7  6  1  0
 23  6  2  0
 23 24  1  0
  6  5  1  0
  5  4  2  0
  4  3  1  0
  3 24  2  0
  3  2  1  0
  2  1  1  0
M  END
$$$$
